
**** 11/22/24 10:09:32 ******* PSpice Lite (March 2016) ******* ID# 10813 ****

 ** Profile: "SCHEMATIC1-Proiect1_OpreaCosmin_N18"  [ d:\proiect1bun\proiect1_opreacosmin_n18-pspicefiles\schematic1\proiect1_opreaco


 ****     CIRCUIT DESCRIPTION


******************************************************************************




** Creating circuit file "Proiect1_OpreaCosmin_N18.cir" 
** WARNING: THIS AUTOMATICALLY GENERATED FILE MAY BE OVERWRITTEN BY SUBSEQUENT SIMULATIONS

*Libraries: 
* Profile Libraries :
* Local Libraries :
.LIB "../../../modele_a1_lib/1n4148.lib" 
.LIB "../../../modele_a1_lib/bc807-25.lib" 
.LIB "../../../modele_a1_lib/bc817-25.lib" 
.LIB "../../../modele_a1_lib/bc846b.lib" 
.LIB "../../../modele_a1_lib/bc856b.lib" 
.LIB "../../../modele_a1_lib/bzx84c2v7.lib" 
.LIB "../../../modele_a1_lib/bzx84c5v1.lib" 
.LIB "../../../modele_a1_lib/bzx84c5v6.lib" 
.LIB "../../../modele_a1_lib/bzx84c6v2.lib" 
.LIB "../../../modele_a1_lib/bzx84c6v8.lib" 
.LIB "../../../modele_a1_lib/bzx84c8v2.lib" 
.LIB "../../../modele_a1_lib/bzx84c10.lib" 
.LIB "../../../modele_a1_lib/irfr120npbf.lib" 
.LIB "../../../modele_a1_lib/mjd31cg.lib" 
.LIB "../../../modele_a1_lib/mjd32cg.lib" 
.LIB "../../../modele_a1_lib/mmbfj177lt1g.lib" 
.LIB "../../../modele_a1_lib/mmbfj309lt1g.lib" 
* From [PSPICE NETLIST] section of C:\Users\Cosmin\AppData\Roaming\SPB_Data\cdssetup\OrCAD_PSpice\17.2.0\PSpice.ini file:
.lib "nomd.lib" 

*Analysis directives: 
.DC DEC V_V5 -5 5 0.1 
-------------$
ERROR(ORPSIM-16104): Invalid start value
.OPTIONS ADVCONV
.PROBE64 V(alias(*)) I(alias(*)) W(alias(*)) D(alias(*)) NOISE(alias(*)) 
.INC "..\SCHEMATIC1.net" 



**** INCLUDING SCHEMATIC1.net ****
* source PROIECT1_OPREACOSMIN_N18
R_R2         N189847 N1896251  51 TC=0,0 
R_R6         N188663 N188539  10 TC=0,0 
R_R1         N189847 N189675  68 TC=0,0 
Q_Q5         N188797 N188797 N188663 QBC856B 
R_R4         N189127 0  10k TC=0,0 
Q_Q6         N188819 N188797 N188669 QBC856B 
Q_Q4         N188819 N237791 N189245 QBC817-25 
Q_Q1         N189567 N189567 N189675 QBC846B 
R_RL         N231069 0  18k TC=0,0 
R_R7         N188669 N188539  10 TC=0,0 
C_C5         IN+ N189005  2.2n  TC=0,0 
R_R5         N189537 N189127  22k TC=0,0 
X_P3         N189027 N189005 N189005 POT PARAMS: SET=0.2 VALUE=10k
X_P1         0 N189825 N189671 POT PARAMS: SET=0.1 VALUE=500k
X_D3         N189671 N189387 awb1n4148 PARAMS:                
R_Rf         N189567 0  1k TC=0,0 
Q_Q3         N188797 N189127 N189199 QBC817-25 
R_R8         N189027 N189387  5k TC=0,0 
Q_Q2         N189351 N189567 N1896251 QBC846B 
C_C4         0 N189671  470n  TC=0,0 
X_P2         IN+ 0 0 POT PARAMS: SET=0.2 VALUE=10k
X_P4         N189199 N189351 N189245 POT PARAMS: SET=0.5 VALUE=100
C_C2         0 IN+  2.2n  TC=0,0 
J_T1         0 N189825 0 JMMBFJ309LT1 
V_V3         N188539 0 5
V_V4         0 N189847 5
X_D6         N188539 N211822 LED PARAMS: IS=5.6404e-029 RS=25  BV=5 IBV=5E-6   
+       
R_RD6         0 N211822  100 TC=0,0 
X_D7         N212519 N189847 LED PARAMS: IS=5.6404e-029 RS=25  BV=5 IBV=5E-6   
+       
R_RD7         N212519 0  100 TC=0,0 
Q_Q8         N189537 N189567 N2182811 QBC846B 
R_R3         N189847 N2182811  22 TC=0,0 
Q_Q7         N189537 N188819 N188539 QBC856B 
C_C6         N188819 N189537  470p  TC=0,0 
X_P5         N189537 N231069 0 POT PARAMS: SET=0.375 VALUE=10k
V_V5         N237791 0 DC 0Vdc AC 1Vac 

**** RESUMING Proiect1_OpreaCosmin_N18.cir ****
.END
